# generated using pymatgen
data_Si
_symmetry_space_group_name_H-M   'P 1'
_cell_length_a   9.42647055
_cell_length_b   9.42647055
_cell_length_c   5.65199670
_cell_angle_alpha   90.00000000
_cell_angle_beta   90.00000000
_cell_angle_gamma   120.00000000
_symmetry_Int_Tables_number   1
_chemical_formula_structural   Si
_chemical_formula_sum   Si24
_cell_volume   434.94141380
_cell_formula_units_Z   24
loop_
 _symmetry_equiv_pos_site_id
 _symmetry_equiv_pos_as_xyz
  1  'x, y, z'
loop_
 _atom_site_type_symbol
 _atom_site_label
 _atom_site_symmetry_multiplicity
 _atom_site_fract_x
 _atom_site_fract_y
 _atom_site_fract_z
 _atom_site_occupancy
  Si  Si0  1  0.93351124  0.56483068  0.08359118  1
  Si  Si1  1  0.73315542  0.76850266  0.24974216  1
  Si  Si2  1  0.00000000  0.00000000  0.71284515  1
  Si  Si3  1  0.70201390  0.60017791  0.58307549  1
  Si  Si4  1  0.56483068  0.63131943  0.91640882  1
  Si  Si5  1  0.96465277  0.73315542  0.75025784  1
  Si  Si6  1  0.00000000  0.00000000  0.28715485  1
  Si  Si7  1  0.10183599  0.70201390  0.41692451  1
  Si  Si8  1  0.60017791  0.89816401  0.41692451  1
  Si  Si9  1  0.39982209  0.10183599  0.58307549  1
  Si  Si10  1  0.66666667  0.33333333  0.04617848  1
  Si  Si11  1  0.36868057  0.93351124  0.91640882  1
  Si  Si12  1  0.23149734  0.96465277  0.24974216  1
  Si  Si13  1  0.63131943  0.06648876  0.08359118  1
  Si  Si14  1  0.66666667  0.33333333  0.62048818  1
  Si  Si15  1  0.76850266  0.03534723  0.75025784  1
  Si  Si16  1  0.26684458  0.23149734  0.75025784  1
  Si  Si17  1  0.06648876  0.43516932  0.91640882  1
  Si  Si18  1  0.33333333  0.66666667  0.37951182  1
  Si  Si19  1  0.03534723  0.26684458  0.24974216  1
  Si  Si20  1  0.89816401  0.29798610  0.58307549  1
  Si  Si21  1  0.29798610  0.39982209  0.41692451  1
  Si  Si22  1  0.33333333  0.66666667  0.95382152  1
  Si  Si23  1  0.43516932  0.36868057  0.08359118  1
