# generated using pymatgen
data_Si
_symmetry_space_group_name_H-M   'P 1'
_cell_length_a   10.08158717
_cell_length_b   10.08158717
_cell_length_c   24.05659392
_cell_angle_alpha   90.00000000
_cell_angle_beta   90.00000000
_cell_angle_gamma   90.00000000
_symmetry_Int_Tables_number   1
_chemical_formula_structural   Si
_chemical_formula_sum   Si106
_cell_volume   2445.07371226
_cell_formula_units_Z   106
loop_
 _symmetry_equiv_pos_site_id
 _symmetry_equiv_pos_as_xyz
  1  'x, y, z'
loop_
 _atom_site_type_symbol
 _atom_site_label
 _atom_site_symmetry_multiplicity
 _atom_site_fract_x
 _atom_site_fract_y
 _atom_site_fract_z
 _atom_site_occupancy
  Si  Si0  1  0.18415477  0.31700781  0.97124775  1
  Si  Si1  1  0.81584523  0.68299219  0.97124775  1
  Si  Si2  1  0.68415477  0.81700781  0.52875225  1
  Si  Si3  1  0.31584523  0.18299219  0.52875225  1
  Si  Si4  1  0.81584523  0.31700781  0.97124775  1
  Si  Si5  1  0.18415477  0.68299219  0.97124775  1
  Si  Si6  1  0.31584523  0.81700781  0.52875225  1
  Si  Si7  1  0.68415477  0.18299219  0.52875225  1
  Si  Si8  1  0.68299219  0.18415477  0.02875225  1
  Si  Si9  1  0.31700781  0.81584523  0.02875225  1
  Si  Si10  1  0.18299219  0.68415477  0.47124775  1
  Si  Si11  1  0.81700781  0.31584523  0.47124775  1
  Si  Si12  1  0.31700781  0.18415477  0.02875225  1
  Si  Si13  1  0.68299219  0.81584523  0.02875225  1
  Si  Si14  1  0.81700781  0.68415477  0.47124775  1
  Si  Si15  1  0.18299219  0.31584523  0.47124775  1
  Si  Si16  1  0.37841260  0.29375652  0.11157577  1
  Si  Si17  1  0.62158740  0.70624348  0.11157577  1
  Si  Si18  1  0.87841260  0.79375652  0.38842423  1
  Si  Si19  1  0.12158740  0.20624348  0.38842423  1
  Si  Si20  1  0.62158740  0.29375652  0.11157577  1
  Si  Si21  1  0.37841260  0.70624348  0.11157577  1
  Si  Si22  1  0.12158740  0.79375652  0.38842423  1
  Si  Si23  1  0.87841260  0.20624348  0.38842423  1
  Si  Si24  1  0.70624348  0.37841260  0.88842423  1
  Si  Si25  1  0.29375652  0.62158740  0.88842423  1
  Si  Si26  1  0.20624348  0.87841260  0.61157577  1
  Si  Si27  1  0.79375652  0.12158740  0.61157577  1
  Si  Si28  1  0.29375652  0.37841260  0.88842423  1
  Si  Si29  1  0.70624348  0.62158740  0.88842423  1
  Si  Si30  1  0.79375652  0.87841260  0.61157577  1
  Si  Si31  1  0.20624348  0.12158740  0.61157577  1
  Si  Si32  1  0.25439914  0.17908696  0.18310153  1
  Si  Si33  1  0.74560086  0.82091304  0.18310153  1
  Si  Si34  1  0.75439914  0.67908696  0.31689847  1
  Si  Si35  1  0.24560086  0.32091304  0.31689847  1
  Si  Si36  1  0.74560086  0.17908696  0.18310153  1
  Si  Si37  1  0.25439914  0.82091304  0.18310153  1
  Si  Si38  1  0.24560086  0.67908696  0.31689847  1
  Si  Si39  1  0.75439914  0.32091304  0.31689847  1
  Si  Si40  1  0.82091304  0.25439914  0.81689847  1
  Si  Si41  1  0.17908696  0.74560086  0.81689847  1
  Si  Si42  1  0.32091304  0.75439914  0.68310153  1
  Si  Si43  1  0.67908696  0.24560086  0.68310153  1
  Si  Si44  1  0.17908696  0.25439914  0.81689847  1
  Si  Si45  1  0.82091304  0.74560086  0.81689847  1
  Si  Si46  1  0.67908696  0.75439914  0.68310153  1
  Si  Si47  1  0.32091304  0.24560086  0.68310153  1
  Si  Si48  1  0.11735716  0.31939091  0.23506585  1
  Si  Si49  1  0.88264284  0.68060909  0.23506585  1
  Si  Si50  1  0.61735716  0.81939091  0.26493415  1
  Si  Si51  1  0.38264284  0.18060909  0.26493415  1
  Si  Si52  1  0.88264284  0.31939091  0.23506585  1
  Si  Si53  1  0.11735716  0.68060909  0.23506585  1
  Si  Si54  1  0.38264284  0.81939091  0.26493415  1
  Si  Si55  1  0.61735716  0.18060909  0.26493415  1
  Si  Si56  1  0.68060909  0.11735716  0.76493415  1
  Si  Si57  1  0.31939091  0.88264284  0.76493415  1
  Si  Si58  1  0.18060909  0.61735716  0.73506585  1
  Si  Si59  1  0.81939091  0.38264284  0.73506585  1
  Si  Si60  1  0.31939091  0.11735716  0.76493415  1
  Si  Si61  1  0.68060909  0.88264284  0.76493415  1
  Si  Si62  1  0.81939091  0.61735716  0.73506585  1
  Si  Si63  1  0.18060909  0.38264284  0.73506585  1
  Si  Si64  1  0.18957200  0.00000000  0.05407742  1
  Si  Si65  1  0.81042800  0.00000000  0.05407742  1
  Si  Si66  1  0.68957200  0.50000000  0.44592258  1
  Si  Si67  1  0.31042800  0.50000000  0.44592258  1
  Si  Si68  1  0.00000000  0.18957200  0.94592258  1
  Si  Si69  1  0.00000000  0.81042800  0.94592258  1
  Si  Si70  1  0.50000000  0.68957200  0.55407742  1
  Si  Si71  1  0.50000000  0.31042800  0.55407742  1
  Si  Si72  1  0.12844859  0.00000000  0.14799428  1
  Si  Si73  1  0.87155141  0.00000000  0.14799428  1
  Si  Si74  1  0.62844859  0.50000000  0.35200572  1
  Si  Si75  1  0.37155141  0.50000000  0.35200572  1
  Si  Si76  1  0.00000000  0.12844859  0.85200572  1
  Si  Si77  1  0.00000000  0.87155141  0.85200572  1
  Si  Si78  1  0.50000000  0.62844859  0.64799428  1
  Si  Si79  1  0.50000000  0.37155141  0.64799428  1
  Si  Si80  1  0.11968938  0.50000000  0.02486341  1
  Si  Si81  1  0.88031062  0.50000000  0.02486341  1
  Si  Si82  1  0.61968938  0.00000000  0.47513659  1
  Si  Si83  1  0.38031062  0.00000000  0.47513659  1
  Si  Si84  1  0.50000000  0.11968938  0.97513659  1
  Si  Si85  1  0.50000000  0.88031062  0.97513659  1
  Si  Si86  1  0.00000000  0.61968938  0.52486341  1
  Si  Si87  1  0.00000000  0.38031062  0.52486341  1
  Si  Si88  1  0.26505106  0.50000000  0.10357899  1
  Si  Si89  1  0.73494894  0.50000000  0.10357899  1
  Si  Si90  1  0.76505106  0.00000000  0.39642101  1
  Si  Si91  1  0.23494894  0.00000000  0.39642101  1
  Si  Si92  1  0.50000000  0.26505106  0.89642101  1
  Si  Si93  1  0.50000000  0.73494894  0.89642101  1
  Si  Si94  1  0.00000000  0.76505106  0.60357899  1
  Si  Si95  1  0.00000000  0.23494894  0.60357899  1
  Si  Si96  1  0.11657999  0.50000000  0.17699671  1
  Si  Si97  1  0.88342001  0.50000000  0.17699671  1
  Si  Si98  1  0.61657999  0.00000000  0.32300329  1
  Si  Si99  1  0.38342001  0.00000000  0.32300329  1
  Si  Si100  1  0.50000000  0.11657999  0.82300329  1
  Si  Si101  1  0.50000000  0.88342001  0.82300329  1
  Si  Si102  1  0.00000000  0.61657999  0.67699671  1
  Si  Si103  1  0.00000000  0.38342001  0.67699671  1
  Si  Si104  1  0.50000000  0.50000000  0.50000000  1
  Si  Si105  1  0.00000000  0.00000000  0.00000000  1
