# generated using pymatgen
data_Si
_symmetry_space_group_name_H-M   'P 1'
_cell_length_a   12.80914038
_cell_length_b   16.73574950
_cell_length_c   9.98082303
_cell_angle_alpha   90.00000000
_cell_angle_beta   90.00000000
_cell_angle_gamma   90.00000000
_symmetry_Int_Tables_number   1
_chemical_formula_structural   Si
_chemical_formula_sum   Si92
_cell_volume   2139.59466921
_cell_formula_units_Z   92
loop_
 _symmetry_equiv_pos_site_id
 _symmetry_equiv_pos_as_xyz
  1  'x, y, z'
loop_
 _atom_site_type_symbol
 _atom_site_label
 _atom_site_symmetry_multiplicity
 _atom_site_fract_x
 _atom_site_fract_y
 _atom_site_fract_z
 _atom_site_occupancy
  Si  Si0  1  0.21268993  0.11912043  0.05912873  1
  Si  Si1  1  0.78731007  0.11912043  0.94087127  1
  Si  Si2  1  0.21268993  0.11912043  0.44087127  1
  Si  Si3  1  0.78731007  0.11912043  0.55912873  1
  Si  Si4  1  0.78731007  0.88087957  0.94087127  1
  Si  Si5  1  0.21268993  0.88087957  0.05912873  1
  Si  Si6  1  0.78731007  0.88087957  0.55912873  1
  Si  Si7  1  0.21268993  0.88087957  0.44087127  1
  Si  Si8  1  0.37550270  0.17605332  0.12670205  1
  Si  Si9  1  0.62449730  0.17605332  0.87329795  1
  Si  Si10  1  0.37550270  0.17605332  0.37329795  1
  Si  Si11  1  0.62449730  0.17605332  0.62670205  1
  Si  Si12  1  0.62449730  0.82394668  0.87329795  1
  Si  Si13  1  0.37550270  0.82394668  0.12670205  1
  Si  Si14  1  0.62449730  0.82394668  0.62670205  1
  Si  Si15  1  0.37550270  0.82394668  0.37329795  1
  Si  Si16  1  0.41833208  0.30766840  0.05916875  1
  Si  Si17  1  0.58166792  0.30766840  0.94083125  1
  Si  Si18  1  0.41833208  0.30766840  0.44083125  1
  Si  Si19  1  0.58166792  0.30766840  0.55916875  1
  Si  Si20  1  0.58166792  0.69233160  0.94083125  1
  Si  Si21  1  0.41833208  0.69233160  0.05916875  1
  Si  Si22  1  0.58166792  0.69233160  0.55916875  1
  Si  Si23  1  0.41833208  0.69233160  0.44083125  1
  Si  Si24  1  0.50000000  0.10092342  0.00000000  1
  Si  Si25  1  0.50000000  0.10092342  0.50000000  1
  Si  Si26  1  0.50000000  0.89907658  0.00000000  1
  Si  Si27  1  0.50000000  0.89907658  0.50000000  1
  Si  Si28  1  0.24823437  0.00000000  0.93943148  1
  Si  Si29  1  0.75176563  0.00000000  0.06056852  1
  Si  Si30  1  0.24823437  0.00000000  0.56056852  1
  Si  Si31  1  0.75176563  0.00000000  0.43943148  1
  Si  Si32  1  0.42119853  0.00000000  0.86878562  1
  Si  Si33  1  0.57880147  0.00000000  0.13121438  1
  Si  Si34  1  0.42119853  0.00000000  0.63121438  1
  Si  Si35  1  0.57880147  0.00000000  0.36878562  1
  Si  Si36  1  0.54449310  0.38415881  0.75000000  1
  Si  Si37  1  0.45550690  0.38415881  0.25000000  1
  Si  Si38  1  0.45550690  0.61584119  0.25000000  1
  Si  Si39  1  0.54449310  0.61584119  0.75000000  1
  Si  Si40  1  0.87171932  0.07080650  0.75000000  1
  Si  Si41  1  0.12828068  0.07080650  0.25000000  1
  Si  Si42  1  0.12828068  0.92919350  0.25000000  1
  Si  Si43  1  0.87171932  0.92919350  0.75000000  1
  Si  Si44  1  0.14396255  0.00000000  0.75000000  1
  Si  Si45  1  0.85603745  0.00000000  0.25000000  1
  Si  Si46  1  0.71268993  0.61912043  0.05912873  1
  Si  Si47  1  0.28731007  0.61912043  0.94087127  1
  Si  Si48  1  0.71268993  0.61912043  0.44087127  1
  Si  Si49  1  0.28731007  0.61912043  0.55912873  1
  Si  Si50  1  0.28731007  0.38087957  0.94087127  1
  Si  Si51  1  0.71268993  0.38087957  0.05912873  1
  Si  Si52  1  0.28731007  0.38087957  0.55912873  1
  Si  Si53  1  0.71268993  0.38087957  0.44087127  1
  Si  Si54  1  0.87550270  0.67605332  0.12670205  1
  Si  Si55  1  0.12449730  0.67605332  0.87329795  1
  Si  Si56  1  0.87550270  0.67605332  0.37329795  1
  Si  Si57  1  0.12449730  0.67605332  0.62670205  1
  Si  Si58  1  0.12449730  0.32394668  0.87329795  1
  Si  Si59  1  0.87550270  0.32394668  0.12670205  1
  Si  Si60  1  0.12449730  0.32394668  0.62670205  1
  Si  Si61  1  0.87550270  0.32394668  0.37329795  1
  Si  Si62  1  0.91833208  0.80766840  0.05916875  1
  Si  Si63  1  0.08166792  0.80766840  0.94083125  1
  Si  Si64  1  0.91833208  0.80766840  0.44083125  1
  Si  Si65  1  0.08166792  0.80766840  0.55916875  1
  Si  Si66  1  0.08166792  0.19233160  0.94083125  1
  Si  Si67  1  0.91833208  0.19233160  0.05916875  1
  Si  Si68  1  0.08166792  0.19233160  0.55916875  1
  Si  Si69  1  0.91833208  0.19233160  0.44083125  1
  Si  Si70  1  0.00000000  0.60092342  0.00000000  1
  Si  Si71  1  0.00000000  0.60092342  0.50000000  1
  Si  Si72  1  0.00000000  0.39907658  0.00000000  1
  Si  Si73  1  0.00000000  0.39907658  0.50000000  1
  Si  Si74  1  0.74823437  0.50000000  0.93943148  1
  Si  Si75  1  0.25176563  0.50000000  0.06056852  1
  Si  Si76  1  0.74823437  0.50000000  0.56056852  1
  Si  Si77  1  0.25176563  0.50000000  0.43943148  1
  Si  Si78  1  0.92119853  0.50000000  0.86878562  1
  Si  Si79  1  0.07880147  0.50000000  0.13121438  1
  Si  Si80  1  0.92119853  0.50000000  0.63121438  1
  Si  Si81  1  0.07880147  0.50000000  0.36878562  1
  Si  Si82  1  0.04449310  0.88415881  0.75000000  1
  Si  Si83  1  0.95550690  0.88415881  0.25000000  1
  Si  Si84  1  0.95550690  0.11584119  0.25000000  1
  Si  Si85  1  0.04449310  0.11584119  0.75000000  1
  Si  Si86  1  0.37171932  0.57080650  0.75000000  1
  Si  Si87  1  0.62828068  0.57080650  0.25000000  1
  Si  Si88  1  0.62828068  0.42919350  0.25000000  1
  Si  Si89  1  0.37171932  0.42919350  0.75000000  1
  Si  Si90  1  0.64396255  0.50000000  0.75000000  1
  Si  Si91  1  0.35603745  0.50000000  0.25000000  1
