# generated using pymatgen
data_Si
_symmetry_space_group_name_H-M   'P 1'
_cell_length_a   9.93653882
_cell_length_b   9.93653882
_cell_length_c   15.99433626
_cell_angle_alpha   90.00000000
_cell_angle_beta   90.00000000
_cell_angle_gamma   120.00000000
_symmetry_Int_Tables_number   1
_chemical_formula_structural   Si
_chemical_formula_sum   Si58
_cell_volume   1367.62528406
_cell_formula_units_Z   58
loop_
 _symmetry_equiv_pos_site_id
 _symmetry_equiv_pos_as_xyz
  1  'x, y, z'
loop_
 _atom_site_type_symbol
 _atom_site_label
 _atom_site_symmetry_multiplicity
 _atom_site_fract_x
 _atom_site_fract_y
 _atom_site_fract_z
 _atom_site_occupancy
  Si  Si0  1  0.62048123  0.61943848  0.70470289  1
  Si  Si1  1  0.99895726  0.37951877  0.70470289  1
  Si  Si2  1  0.38056152  0.00104274  0.70470289  1
  Si  Si3  1  0.62048123  0.00104274  0.70470289  1
  Si  Si4  1  0.38056152  0.37951877  0.70470289  1
  Si  Si5  1  0.99895726  0.61943848  0.70470289  1
  Si  Si6  1  0.37951877  0.38056152  0.29529711  1
  Si  Si7  1  0.00104274  0.62048123  0.29529711  1
  Si  Si8  1  0.61943848  0.99895726  0.29529711  1
  Si  Si9  1  0.37951877  0.99895726  0.29529711  1
  Si  Si10  1  0.61943848  0.62048123  0.29529711  1
  Si  Si11  1  0.00104274  0.38056152  0.29529711  1
  Si  Si12  1  0.75534428  0.99948337  0.82633103  1
  Si  Si13  1  0.24413910  0.24465572  0.82633103  1
  Si  Si14  1  0.00051663  0.75586090  0.82633103  1
  Si  Si15  1  0.75534428  0.75586090  0.82633103  1
  Si  Si16  1  0.00051663  0.24465572  0.82633103  1
  Si  Si17  1  0.24413910  0.99948337  0.82633103  1
  Si  Si18  1  0.24465572  0.00051663  0.17366897  1
  Si  Si19  1  0.75586090  0.75534428  0.17366897  1
  Si  Si20  1  0.99948337  0.24413910  0.17366897  1
  Si  Si21  1  0.24465572  0.24413910  0.17366897  1
  Si  Si22  1  0.99948337  0.75534428  0.17366897  1
  Si  Si23  1  0.75586090  0.00051663  0.17366897  1
  Si  Si24  1  0.57888888  0.66646995  0.94186257  1
  Si  Si25  1  0.08758108  0.42111112  0.94186257  1
  Si  Si26  1  0.33353005  0.91241892  0.94186257  1
  Si  Si27  1  0.57888888  0.91241892  0.94186257  1
  Si  Si28  1  0.33353005  0.42111112  0.94186257  1
  Si  Si29  1  0.08758108  0.66646995  0.94186257  1
  Si  Si30  1  0.42111112  0.33353005  0.05813743  1
  Si  Si31  1  0.91241892  0.57888888  0.05813743  1
  Si  Si32  1  0.66646995  0.08758108  0.05813743  1
  Si  Si33  1  0.42111112  0.08758108  0.05813743  1
  Si  Si34  1  0.66646995  0.57888888  0.05813743  1
  Si  Si35  1  0.91241892  0.33353005  0.05813743  1
  Si  Si36  1  0.73314019  0.86657009  0.50049610  1
  Si  Si37  1  0.13342991  0.26685981  0.50049610  1
  Si  Si38  1  0.13342991  0.86657009  0.50049610  1
  Si  Si39  1  0.26685981  0.13342991  0.49950390  1
  Si  Si40  1  0.86657009  0.73314019  0.49950390  1
  Si  Si41  1  0.86657009  0.13342991  0.49950390  1
  Si  Si42  1  0.58259974  0.79129987  0.37839509  1
  Si  Si43  1  0.20870013  0.41740026  0.37839509  1
  Si  Si44  1  0.20870013  0.79129987  0.37839509  1
  Si  Si45  1  0.41740026  0.20870013  0.62160491  1
  Si  Si46  1  0.79129987  0.58259974  0.62160491  1
  Si  Si47  1  0.79129987  0.20870013  0.62160491  1
  Si  Si48  1  0.58282472  0.79141236  0.62293467  1
  Si  Si49  1  0.20858764  0.41717528  0.62293467  1
  Si  Si50  1  0.20858764  0.79141236  0.62293467  1
  Si  Si51  1  0.41717528  0.20858764  0.37706533  1
  Si  Si52  1  0.79141236  0.58282472  0.37706533  1
  Si  Si53  1  0.79141236  0.20858764  0.37706533  1
  Si  Si54  1  0.33333333  0.66666667  0.57275696  1
  Si  Si55  1  0.66666667  0.33333333  0.42724304  1
  Si  Si56  1  0.33333333  0.66666667  0.42870942  1
  Si  Si57  1  0.66666667  0.33333333  0.57129058  1
