# generated using pymatgen
data_Si
_symmetry_space_group_name_H-M   'P 1'
_cell_length_a   25.32152148
_cell_length_b   15.09740786
_cell_length_c   9.82752687
_cell_angle_alpha   90.00000000
_cell_angle_beta   94.30692633
_cell_angle_gamma   90.00000000
_symmetry_Int_Tables_number   1
_chemical_formula_structural   Si
_chemical_formula_sum   Si164
_cell_volume   3746.34931573
_cell_formula_units_Z   164
loop_
 _symmetry_equiv_pos_site_id
 _symmetry_equiv_pos_as_xyz
  1  'x, y, z'
loop_
 _atom_site_type_symbol
 _atom_site_label
 _atom_site_symmetry_multiplicity
 _atom_site_fract_x
 _atom_site_fract_y
 _atom_site_fract_z
 _atom_site_occupancy
  Si  Si0  1  0.05420936  0.40081495  0.89903180  1
  Si  Si1  1  0.94579064  0.40081495  0.60096820  1
  Si  Si2  1  0.94579064  0.59918505  0.10096820  1
  Si  Si3  1  0.05420936  0.59918505  0.39903180  1
  Si  Si4  1  0.13891772  0.46017389  0.89384766  1
  Si  Si5  1  0.86108228  0.46017389  0.60615234  1
  Si  Si6  1  0.86108228  0.53982611  0.10615234  1
  Si  Si7  1  0.13891772  0.53982611  0.39384766  1
  Si  Si8  1  0.13362198  0.59040031  0.76640059  1
  Si  Si9  1  0.86637802  0.59040031  0.73359941  1
  Si  Si10  1  0.86637802  0.40959969  0.23359941  1
  Si  Si11  1  0.13362198  0.40959969  0.26640059  1
  Si  Si12  1  0.16894965  0.71541951  0.88091092  1
  Si  Si13  1  0.83105035  0.71541951  0.61908908  1
  Si  Si14  1  0.83105035  0.28458049  0.11908908  1
  Si  Si15  1  0.16894965  0.28458049  0.38091092  1
  Si  Si16  1  0.94904568  0.60563515  0.85961881  1
  Si  Si17  1  0.05095432  0.60563515  0.64038119  1
  Si  Si18  1  0.05095432  0.39436485  0.14038119  1
  Si  Si19  1  0.94904568  0.39436485  0.35961881  1
  Si  Si20  1  0.06561274  0.88938050  0.00723448  1
  Si  Si21  1  0.93438726  0.88938050  0.49276552  1
  Si  Si22  1  0.93438726  0.11061950  0.99276552  1
  Si  Si23  1  0.06561274  0.11061950  0.50723448  1
  Si  Si24  1  0.10566642  0.82460071  0.82202105  1
  Si  Si25  1  0.89433358  0.82460071  0.67797895  1
  Si  Si26  1  0.89433358  0.17539929  0.17797895  1
  Si  Si27  1  0.10566642  0.17539929  0.32202105  1
  Si  Si28  1  0.97514327  0.84827741  0.00491821  1
  Si  Si29  1  0.02485673  0.84827741  0.49508179  1
  Si  Si30  1  0.02485673  0.15172259  0.99508179  1
  Si  Si31  1  0.97514327  0.15172259  0.50491821  1
  Si  Si32  1  0.03688106  0.75717759  0.68749152  1
  Si  Si33  1  0.96311894  0.75717759  0.81250848  1
  Si  Si34  1  0.96311894  0.24282241  0.31250848  1
  Si  Si35  1  0.03688106  0.24282241  0.18749152  1
  Si  Si36  1  0.73341263  0.61781615  0.90378075  1
  Si  Si37  1  0.26658737  0.61781615  0.59621925  1
  Si  Si38  1  0.26658737  0.38218385  0.09621925  1
  Si  Si39  1  0.73341263  0.38218385  0.40378075  1
  Si  Si40  1  0.81134153  0.53643444  0.89620387  1
  Si  Si41  1  0.18865847  0.53643444  0.60379613  1
  Si  Si42  1  0.18865847  0.46356556  0.10379613  1
  Si  Si43  1  0.81134153  0.46356556  0.39620387  1
  Si  Si44  1  0.19379559  0.40723369  0.73342795  1
  Si  Si45  1  0.80620441  0.40723369  0.76657205  1
  Si  Si46  1  0.80620441  0.59276631  0.26657205  1
  Si  Si47  1  0.19379559  0.59276631  0.23342795  1
  Si  Si48  1  0.17647115  0.27360674  0.62136392  1
  Si  Si49  1  0.82352885  0.27360674  0.87863608  1
  Si  Si50  1  0.82352885  0.72639326  0.37863608  1
  Si  Si51  1  0.17647115  0.72639326  0.12136392  1
  Si  Si52  1  0.75575863  0.73093936  0.74654754  1
  Si  Si53  1  0.24424137  0.73093936  0.75345246  1
  Si  Si54  1  0.24424137  0.26906064  0.25345246  1
  Si  Si55  1  0.75575863  0.26906064  0.24654754  1
  Si  Si56  1  0.27316696  0.36721542  0.85837794  1
  Si  Si57  1  0.72683304  0.36721542  0.64162206  1
  Si  Si58  1  0.72683304  0.63278458  0.14162206  1
  Si  Si59  1  0.27316696  0.63278458  0.35837794  1
  Si  Si60  1  0.04059101  0.25240030  0.81760544  1
  Si  Si61  1  0.95940899  0.25240030  0.68239456  1
  Si  Si62  1  0.95940899  0.74759970  0.18239456  1
  Si  Si63  1  0.04059101  0.74759970  0.31760544  1
  Si  Si64  1  0.10813060  0.18392173  0.69686187  1
  Si  Si65  1  0.89186940  0.18392173  0.80313813  1
  Si  Si66  1  0.89186940  0.81607827  0.30313813  1
  Si  Si67  1  0.10813060  0.81607827  0.19686187  1
  Si  Si68  1  0.59127318  0.54043466  0.00244503  1
  Si  Si69  1  0.40872682  0.54043466  0.49755497  1
  Si  Si70  1  0.40872682  0.45956534  0.99755497  1
  Si  Si71  1  0.59127318  0.45956534  0.50244503  1
  Si  Si72  1  0.64850666  0.56607912  0.82565820  1
  Si  Si73  1  0.35149334  0.56607912  0.67434180  1
  Si  Si74  1  0.35149334  0.43392088  0.17434180  1
  Si  Si75  1  0.64850666  0.43392088  0.32565820  1
  Si  Si76  1  0.64718109  0.43345305  0.69908138  1
  Si  Si77  1  0.35281891  0.43345305  0.80091862  1
  Si  Si78  1  0.35281891  0.56654695  0.30091862  1
  Si  Si79  1  0.64718109  0.56654695  0.19908138  1
  Si  Si80  1  0.00000000  0.49802317  0.75000000  1
  Si  Si81  1  0.00000000  0.50197683  0.25000000  1
  Si  Si82  1  0.55420936  0.90081495  0.89903180  1
  Si  Si83  1  0.44579064  0.90081495  0.60096820  1
  Si  Si84  1  0.44579064  0.09918505  0.10096820  1
  Si  Si85  1  0.55420936  0.09918505  0.39903180  1
  Si  Si86  1  0.63891772  0.96017389  0.89384766  1
  Si  Si87  1  0.36108228  0.96017389  0.60615234  1
  Si  Si88  1  0.36108228  0.03982611  0.10615234  1
  Si  Si89  1  0.63891772  0.03982611  0.39384766  1
  Si  Si90  1  0.63362198  0.09040031  0.76640059  1
  Si  Si91  1  0.36637802  0.09040031  0.73359941  1
  Si  Si92  1  0.36637802  0.90959969  0.23359941  1
  Si  Si93  1  0.63362198  0.90959969  0.26640059  1
  Si  Si94  1  0.66894965  0.21541951  0.88091092  1
  Si  Si95  1  0.33105035  0.21541951  0.61908908  1
  Si  Si96  1  0.33105035  0.78458049  0.11908908  1
  Si  Si97  1  0.66894965  0.78458049  0.38091092  1
  Si  Si98  1  0.44904568  0.10563515  0.85961881  1
  Si  Si99  1  0.55095432  0.10563515  0.64038119  1
  Si  Si100  1  0.55095432  0.89436485  0.14038119  1
  Si  Si101  1  0.44904568  0.89436485  0.35961881  1
  Si  Si102  1  0.56561274  0.38938050  0.00723448  1
  Si  Si103  1  0.43438726  0.38938050  0.49276552  1
  Si  Si104  1  0.43438726  0.61061950  0.99276552  1
  Si  Si105  1  0.56561274  0.61061950  0.50723448  1
  Si  Si106  1  0.60566642  0.32460071  0.82202105  1
  Si  Si107  1  0.39433358  0.32460071  0.67797895  1
  Si  Si108  1  0.39433358  0.67539929  0.17797895  1
  Si  Si109  1  0.60566642  0.67539929  0.32202105  1
  Si  Si110  1  0.47514327  0.34827741  0.00491821  1
  Si  Si111  1  0.52485673  0.34827741  0.49508179  1
  Si  Si112  1  0.52485673  0.65172259  0.99508179  1
  Si  Si113  1  0.47514327  0.65172259  0.50491821  1
  Si  Si114  1  0.53688106  0.25717759  0.68749152  1
  Si  Si115  1  0.46311894  0.25717759  0.81250848  1
  Si  Si116  1  0.46311894  0.74282242  0.31250848  1
  Si  Si117  1  0.53688106  0.74282242  0.18749152  1
  Si  Si118  1  0.23341263  0.11781615  0.90378075  1
  Si  Si119  1  0.76658737  0.11781615  0.59621925  1
  Si  Si120  1  0.76658737  0.88218385  0.09621925  1
  Si  Si121  1  0.23341263  0.88218385  0.40378075  1
  Si  Si122  1  0.31134153  0.03643444  0.89620387  1
  Si  Si123  1  0.68865847  0.03643444  0.60379613  1
  Si  Si124  1  0.68865847  0.96356556  0.10379613  1
  Si  Si125  1  0.31134153  0.96356556  0.39620387  1
  Si  Si126  1  0.69379559  0.90723369  0.73342795  1
  Si  Si127  1  0.30620441  0.90723369  0.76657205  1
  Si  Si128  1  0.30620441  0.09276631  0.26657205  1
  Si  Si129  1  0.69379559  0.09276631  0.23342795  1
  Si  Si130  1  0.67647115  0.77360673  0.62136392  1
  Si  Si131  1  0.32352885  0.77360673  0.87863608  1
  Si  Si132  1  0.32352885  0.22639326  0.37863608  1
  Si  Si133  1  0.67647115  0.22639326  0.12136392  1
  Si  Si134  1  0.25575863  0.23093936  0.74654754  1
  Si  Si135  1  0.74424137  0.23093936  0.75345246  1
  Si  Si136  1  0.74424137  0.76906064  0.25345246  1
  Si  Si137  1  0.25575863  0.76906064  0.24654754  1
  Si  Si138  1  0.77316696  0.86721541  0.85837794  1
  Si  Si139  1  0.22683304  0.86721541  0.64162206  1
  Si  Si140  1  0.22683304  0.13278458  0.14162206  1
  Si  Si141  1  0.77316696  0.13278458  0.35837794  1
  Si  Si142  1  0.54059101  0.75240030  0.81760544  1
  Si  Si143  1  0.45940899  0.75240030  0.68239456  1
  Si  Si144  1  0.45940899  0.24759970  0.18239456  1
  Si  Si145  1  0.54059101  0.24759970  0.31760544  1
  Si  Si146  1  0.60813060  0.68392173  0.69686187  1
  Si  Si147  1  0.39186940  0.68392173  0.80313813  1
  Si  Si148  1  0.39186940  0.31607827  0.30313813  1
  Si  Si149  1  0.60813060  0.31607827  0.19686187  1
  Si  Si150  1  0.09127318  0.04043466  0.00244503  1
  Si  Si151  1  0.90872682  0.04043466  0.49755497  1
  Si  Si152  1  0.90872682  0.95956534  0.99755497  1
  Si  Si153  1  0.09127318  0.95956534  0.50244503  1
  Si  Si154  1  0.14850666  0.06607912  0.82565820  1
  Si  Si155  1  0.85149334  0.06607912  0.67434180  1
  Si  Si156  1  0.85149334  0.93392089  0.17434180  1
  Si  Si157  1  0.14850666  0.93392089  0.32565820  1
  Si  Si158  1  0.14718109  0.93345305  0.69908138  1
  Si  Si159  1  0.85281890  0.93345305  0.80091862  1
  Si  Si160  1  0.85281890  0.06654695  0.30091862  1
  Si  Si161  1  0.14718109  0.06654695  0.19908138  1
  Si  Si162  1  0.50000000  0.99802317  0.75000000  1
  Si  Si163  1  0.50000000  0.00197683  0.25000000  1
