# generated using pymatgen
data_Si
_symmetry_space_group_name_H-M   'P 1'
_cell_length_a   6.75212659
_cell_length_b   6.75212659
_cell_length_c   2.47393307
_cell_angle_alpha   90.00000000
_cell_angle_beta   90.00000000
_cell_angle_gamma   120.00000000
_symmetry_Int_Tables_number   1
_chemical_formula_structural   Si
_chemical_formula_sum   Si6
_cell_volume   97.67866816
_cell_formula_units_Z   6
loop_
 _symmetry_equiv_pos_site_id
 _symmetry_equiv_pos_as_xyz
  1  'x, y, z'
loop_
 _atom_site_type_symbol
 _atom_site_label
 _atom_site_symmetry_multiplicity
 _atom_site_fract_x
 _atom_site_fract_y
 _atom_site_fract_z
 _atom_site_occupancy
  Si  Si0  1  0.15338758  0.73153570  0.00000000  1
  Si  Si1  1  0.26846430  0.42185188  0.00000000  1
  Si  Si2  1  0.57814812  0.84661242  0.00000000  1
  Si  Si3  1  0.84661242  0.26846430  0.00000000  1
  Si  Si4  1  0.73153570  0.57814812  0.00000000  1
  Si  Si5  1  0.42185188  0.15338758  0.00000000  1
