# generated using pymatgen
data_Si
_symmetry_space_group_name_H-M   'P 1'
_cell_length_a   12.33642402
_cell_length_b   12.53708731
_cell_length_c   12.53983493
_cell_angle_alpha   78.46296625
_cell_angle_beta   73.52804820
_cell_angle_gamma   77.15858093
_symmetry_Int_Tables_number   1
_chemical_formula_structural   Si
_chemical_formula_sum   Si100
_cell_volume   1793.76493767
_cell_formula_units_Z   100
loop_
 _symmetry_equiv_pos_site_id
 _symmetry_equiv_pos_as_xyz
  1  'x, y, z'
loop_
 _atom_site_type_symbol
 _atom_site_label
 _atom_site_symmetry_multiplicity
 _atom_site_fract_x
 _atom_site_fract_y
 _atom_site_fract_z
 _atom_site_occupancy
  Si  Si0  1  0.78079582  0.58159465  0.08752743  1
  Si  Si1  1  0.23911528  0.65456094  0.12374435  1
  Si  Si2  1  0.72801260  0.62280753  0.69802860  1
  Si  Si3  1  0.98204252  0.68103153  0.69986870  1
  Si  Si4  1  0.96758895  0.42382043  0.05178415  1
  Si  Si5  1  0.49744837  0.65841337  0.27033138  1
  Si  Si6  1  0.08607624  0.26594109  0.86658270  1
  Si  Si7  1  0.19447183  0.50304891  0.79875566  1
  Si  Si8  1  0.64202676  0.48190387  0.43063200  1
  Si  Si9  1  0.49470519  0.38322147  0.41173550  1
  Si  Si10  1  0.69978305  0.38324463  0.59264631  1
  Si  Si11  1  0.39222403  0.44071319  0.14628977  1
  Si  Si12  1  0.05300102  0.95502803  0.59743782  1
  Si  Si13  1  0.94168574  0.37809848  0.72115050  1
  Si  Si14  1  0.70533622  0.12288064  0.48897520  1
  Si  Si15  1  0.80155730  0.81154995  0.86662992  1
  Si  Si16  1  0.92529841  0.30472683  0.32767285  1
  Si  Si17  1  0.73213386  0.90770769  0.56513138  1
  Si  Si18  1  0.14282787  0.72940382  0.43436396  1
  Si  Si19  1  0.50657206  0.00755685  0.22787294  1
  Si  Si20  1  0.42489202  0.38353168  0.61023508  1
  Si  Si21  1  0.22466972  0.81845965  0.52982519  1
  Si  Si22  1  0.99664412  0.52005781  0.44856038  1
  Si  Si23  1  0.40757100  0.51870732  0.72661590  1
  Si  Si24  1  0.82679433  0.66637561  0.50673934  1
  Si  Si25  1  0.99270257  0.46661956  0.85287257  1
  Si  Si26  1  0.44252141  0.84750051  0.02268786  1
  Si  Si27  1  0.71877069  0.29569137  0.36105294  1
  Si  Si28  1  0.61525000  0.92626229  0.90991746  1
  Si  Si29  1  0.55327257  0.47803642  0.20192248  1
  Si  Si30  1  0.60622203  0.48669145  0.73899011  1
  Si  Si31  1  0.36964368  0.68088320  0.59735508  1
  Si  Si32  1  0.22520342  0.42586131  0.62811075  1
  Si  Si33  1  0.16578270  0.81275227  0.00654520  1
  Si  Si34  1  0.41247916  0.20516934  0.91978551  1
  Si  Si35  1  0.67510922  0.29063340  0.18894739  1
  Si  Si36  1  0.21593603  0.28775887  0.97162106  1
  Si  Si37  1  0.41221346  0.81356274  0.67793078  1
  Si  Si38  1  0.13774208  0.26935211  0.66377361  1
  Si  Si39  1  0.22684154  0.82927658  0.80548642  1
  Si  Si40  1  0.86226934  0.00499571  0.37444359  1
  Si  Si41  1  0.09415590  0.57156061  0.56017753  1
  Si  Si42  1  0.12080503  0.92789284  0.22958144  1
  Si  Si43  1  0.95404747  0.48303999  0.22418614  1
  Si  Si44  1  0.32659035  0.87643477  0.20971012  1
  Si  Si45  1  0.29706307  0.67678346  0.28071361  1
  Si  Si46  1  0.12711300  0.69556495  0.78247785  1
  Si  Si47  1  0.68377508  0.19407594  0.65575850  1
  Si  Si48  1  0.02826434  0.08668505  0.93764313  1
  Si  Si49  1  0.64279371  0.53706820  0.00375640  1
  Si  Si50  1  0.00148530  0.19157266  0.59292212  1
  Si  Si51  1  0.06288544  0.60271118  0.25113156  1
  Si  Si52  1  0.89824511  0.36807981  0.53227096  1
  Si  Si53  1  0.82108930  0.27231037  0.86672416  1
  Si  Si54  1  0.48784418  0.25358890  0.18756009  1
  Si  Si55  1  0.57958727  0.94593875  0.73158225  1
  Si  Si56  1  0.06682514  0.67254147  0.98420878  1
  Si  Si57  1  0.69166832  0.04543816  0.98221587  1
  Si  Si58  1  0.36567803  0.06666351  0.12667619  1
  Si  Si59  1  0.39667749  0.05940133  0.74185000  1
  Si  Si60  1  0.17778255  0.36425296  0.40052885  1
  Si  Si61  1  0.04462563  0.01371493  0.39908802  1
  Si  Si62  1  0.82187540  0.61269929  0.84270309  1
  Si  Si63  1  0.48052954  0.21595287  0.72234867  1
  Si  Si64  1  0.55809958  0.22084507  0.00014232  1
  Si  Si65  1  0.96531182  0.90229641  0.04800574  1
  Si  Si66  1  0.12921102  0.08520298  0.08237825  1
  Si  Si67  1  0.27241998  0.09659285  0.44254006  1
  Si  Si68  1  0.49116316  0.67586989  0.94858806  1
  Si  Si69  1  0.96425344  0.23589848  0.14195333  1
  Si  Si70  1  0.66263588  0.78764537  0.45272386  1
  Si  Si71  1  0.83277726  0.18796105  0.05813051  1
  Si  Si72  1  0.10067910  0.18858716  0.37756382  1
  Si  Si73  1  0.83783486  0.14184812  0.74596217  1
  Si  Si74  1  0.48686663  0.91795731  0.50209890  1
  Si  Si75  1  0.86858339  0.74677950  0.03489630  1
  Si  Si76  1  0.32621312  0.47809115  0.34628952  1
  Si  Si77  1  0.88804487  0.86564907  0.65974590  1
  Si  Si78  1  0.56565154  0.75581779  0.76235885  1
  Si  Si79  1  0.67744315  0.89662038  0.14022135  1
  Si  Si80  1  0.61973280  0.10352429  0.28470044  1
  Si  Si81  1  0.16696071  0.47942593  0.00676779  1
  Si  Si82  1  0.39138128  0.23689959  0.38497346  1
  Si  Si83  1  0.19989526  0.39906785  0.19522584  1
  Si  Si84  1  0.10303731  0.99622206  0.76354942  1
  Si  Si85  1  0.32877945  0.02727663  0.95381067  1
  Si  Si86  1  0.94417384  0.80856672  0.43921600  1
  Si  Si87  1  0.76434226  0.58464693  0.28114367  1
  Si  Si88  1  0.36316641  0.92018610  0.38504957  1
  Si  Si89  1  0.81136369  0.01482964  0.19231443  1
  Si  Si90  1  0.97739888  0.79879879  0.23886395  1
  Si  Si91  1  0.77824312  0.77683251  0.26880448  1
  Si  Si92  1  0.24989590  0.09064893  0.64285820  1
  Si  Si93  1  0.53285616  0.66391506  0.44533663  1
  Si  Si94  1  0.60884799  0.74555948  0.10444419  1
  Si  Si95  1  0.88462781  0.97779128  0.86969825  1
  Si  Si96  1  0.64018819  0.38484735  0.91029775  1
  Si  Si97  1  0.20720180  0.20826730  0.17299480  1
  Si  Si98  1  0.35881259  0.55092689  0.97801345  1
  Si  Si99  1  0.52162990  0.10081296  0.47996495  1
