# generated using pymatgen
data_Si
_symmetry_space_group_name_H-M   'P 1'
_cell_length_a   12.18200854
_cell_length_b   12.22570930
_cell_length_c   12.67697625
_cell_angle_alpha   104.32595059
_cell_angle_beta   101.16800838
_cell_angle_gamma   99.24014708
_symmetry_Int_Tables_number   1
_chemical_formula_structural   Si
_chemical_formula_sum   Si100
_cell_volume   1750.97284719
_cell_formula_units_Z   100
loop_
 _symmetry_equiv_pos_site_id
 _symmetry_equiv_pos_as_xyz
  1  'x, y, z'
loop_
 _atom_site_type_symbol
 _atom_site_label
 _atom_site_symmetry_multiplicity
 _atom_site_fract_x
 _atom_site_fract_y
 _atom_site_fract_z
 _atom_site_occupancy
  Si  Si0  1  0.06499344  0.81572218  0.72201156  1
  Si  Si1  1  0.64511156  0.56950309  0.81900034  1
  Si  Si2  1  0.19412205  0.89102804  0.62004760  1
  Si  Si3  1  0.31855935  0.65392341  0.34499654  1
  Si  Si4  1  0.54173349  0.97709480  0.19020192  1
  Si  Si5  1  0.70156617  0.38516045  0.84723217  1
  Si  Si6  1  0.00693368  0.23191054  0.45715988  1
  Si  Si7  1  0.51149940  0.36261808  0.87496655  1
  Si  Si8  1  0.82683421  0.39544740  0.36288367  1
  Si  Si9  1  0.74332517  0.03137909  0.31679804  1
  Si  Si10  1  0.94346428  0.08290715  0.67454645  1
  Si  Si11  1  0.32872679  0.33621326  0.05918400  1
  Si  Si12  1  0.29762538  0.38623380  0.75863054  1
  Si  Si13  1  0.26181353  0.89151738  0.19791962  1
  Si  Si14  1  0.99509036  0.03181786  0.42533266  1
  Si  Si15  1  0.88655743  0.26177407  0.74898993  1
  Si  Si16  1  0.63005746  0.11308846  0.92188954  1
  Si  Si17  1  0.13933207  0.59568358  0.39333523  1
  Si  Si18  1  0.05581904  0.22292365  0.28089773  1
  Si  Si19  1  0.83743782  0.94682095  0.48662927  1
  Si  Si20  1  0.73950827  0.30408328  0.01892327  1
  Si  Si21  1  0.86378905  0.32657367  0.51754174  1
  Si  Si22  1  0.62301583  0.78917072  0.99704823  1
  Si  Si23  1  0.89377565  0.87640913  0.65887980  1
  Si  Si24  1  0.67104081  0.24811038  0.51706801  1
  Si  Si25  1  0.64798270  0.42904772  0.14256232  1
  Si  Si26  1  0.42567369  0.08960729  0.28725264  1
  Si  Si27  1  0.74776317  0.59433973  0.55639398  1
  Si  Si28  1  0.27995955  0.20772259  0.32389103  1
  Si  Si29  1  0.06664993  0.37333416  0.74084846  1
  Si  Si30  1  0.66619797  0.48197483  0.35854533  1
  Si  Si31  1  0.85886848  0.86801367  0.90944052  1
  Si  Si32  1  0.11329065  0.56512282  0.56574891  1
  Si  Si33  1  0.45563924  0.65394396  0.00014168  1
  Si  Si34  1  0.05784173  0.86325259  0.92087054  1
  Si  Si35  1  0.75912432  0.19611245  0.23890411  1
  Si  Si36  1  0.36392823  0.95265394  0.93150402  1
  Si  Si37  1  0.00521803  0.32476078  0.94621406  1
  Si  Si38  1  0.97853684  0.65262064  0.96642230  1
  Si  Si39  1  0.18958718  0.01453251  0.87424988  1
  Si  Si40  1  0.16328544  0.38777021  0.12567410  1
  Si  Si41  1  0.64521679  0.44833921  0.63006959  1
  Si  Si42  1  0.94875582  0.64694042  0.56887960  1
  Si  Si43  1  0.18810246  0.31279955  0.87930501  1
  Si  Si44  1  0.91284084  0.76568776  0.44149848  1
  Si  Si45  1  0.47620853  0.56060297  0.35809457  1
  Si  Si46  1  0.45549859  0.33859655  0.67229150  1
  Si  Si47  1  0.06535736  0.76302358  0.34534710  1
  Si  Si48  1  0.37152964  0.36671847  0.26208426  1
  Si  Si49  1  0.15207542  0.38278430  0.58240001  1
  Si  Si50  1  0.83687115  0.54611236  0.15669771  1
  Si  Si51  1  0.13991394  0.03897680  0.20134446  1
  Si  Si52  1  0.74392328  0.65559761  0.30442869  1
  Si  Si53  1  0.96137258  0.47025632  0.27320020  1
  Si  Si54  1  0.22017358  0.59052181  0.15450039  1
  Si  Si55  1  0.35770813  0.59125265  0.79982959  1
  Si  Si56  1  0.57657007  0.73733406  0.31207601  1
  Si  Si57  1  0.40844291  0.83993108  0.46944698  1
  Si  Si58  1  0.69851048  0.77752199  0.61988230  1
  Si  Si59  1  0.63728930  0.99319934  0.04289142  1
  Si  Si60  1  0.53618272  0.29969121  0.36610567  1
  Si  Si61  1  0.61253992  0.77037815  0.77622406  1
  Si  Si62  1  0.35500139  0.00693319  0.42788464  1
  Si  Si63  1  0.12081647  0.09378972  0.03245546  1
  Si  Si64  1  0.45897332  0.17878922  0.90042455  1
  Si  Si65  1  0.44830527  0.13424109  0.61498706  1
  Si  Si66  1  0.39180535  0.15182445  0.05944011  1
  Si  Si67  1  0.31267703  0.34910469  0.50268555  1
  Si  Si68  1  0.08004411  0.57065157  0.83292843  1
  Si  Si69  1  0.48307011  0.91021583  0.78038480  1
  Si  Si70  1  0.34268446  0.78491609  0.61778640  1
  Si  Si71  1  0.59562043  0.04466734  0.41511775  1
  Si  Si72  1  0.95672177  0.96369153  0.22450596  1
  Si  Si73  1  0.16343178  0.95703849  0.45499188  1
  Si  Si74  1  0.64697537  0.02624622  0.73562285  1
  Si  Si75  1  0.48387446  0.47633478  0.04115212  1
  Si  Si76  1  0.24144429  0.83082127  0.00161185  1
  Si  Si77  1  0.86939392  0.75584972  0.18433746  1
  Si  Si78  1  0.57878603  0.24547617  0.18198556  1
  Si  Si79  1  0.47874863  0.49164810  0.51845358  1
  Si  Si80  1  0.67657426  0.21110907  0.69892747  1
  Si  Si81  1  0.87848022  0.45066597  0.70247256  1
  Si  Si82  1  0.88506790  0.46553601  0.97738888  1
  Si  Si83  1  0.10124695  0.72452801  0.15954583  1
  Si  Si84  1  0.84064102  0.00981477  0.07478008  1
  Si  Si85  1  0.61258617  0.87900155  0.49100425  1
  Si  Si86  1  0.14778706  0.12706147  0.75053749  1
  Si  Si87  1  0.43319013  0.79079661  0.18054216  1
  Si  Si88  1  0.90473243  0.26953810  0.15396992  1
  Si  Si89  1  0.79000031  0.70812256  0.97882178  1
  Si  Si90  1  0.69640887  0.82976506  0.20457991  1
  Si  Si91  1  0.20092900  0.68367388  0.75347012  1
  Si  Si92  1  0.83542081  0.01156286  0.80944596  1
  Si  Si93  1  0.35293816  0.04639741  0.72692005  1
  Si  Si94  1  0.44127414  0.63877848  0.65943780  1
  Si  Si95  1  0.82831961  0.64973334  0.77805131  1
  Si  Si96  1  0.94255568  0.14547834  0.98533870  1
  Si  Si97  1  0.25316906  0.18466488  0.61564710  1
  Si  Si98  1  0.19749624  0.39824300  0.32506772  1
  Si  Si99  1  0.25060278  0.63513166  0.98982809  1
