# generated using pymatgen
data_Si
_symmetry_space_group_name_H-M   'P 1'
_cell_length_a   12.81884769
_cell_length_b   12.89176596
_cell_length_c   12.93019737
_cell_angle_alpha   71.41883148
_cell_angle_beta   73.72730486
_cell_angle_gamma   76.23957876
_symmetry_Int_Tables_number   1
_chemical_formula_structural   Si
_chemical_formula_sum   Si100
_cell_volume   1918.19224543
_cell_formula_units_Z   100
loop_
 _symmetry_equiv_pos_site_id
 _symmetry_equiv_pos_as_xyz
  1  'x, y, z'
loop_
 _atom_site_type_symbol
 _atom_site_label
 _atom_site_symmetry_multiplicity
 _atom_site_fract_x
 _atom_site_fract_y
 _atom_site_fract_z
 _atom_site_occupancy
  Si  Si0  1  0.65922092  0.88367216  0.16884092  1
  Si  Si1  1  0.31722681  0.05893169  0.61002357  1
  Si  Si2  1  0.53871982  0.12024604  0.72673095  1
  Si  Si3  1  0.54939792  0.85218179  0.35060514  1
  Si  Si4  1  0.06196956  0.90392497  0.99114893  1
  Si  Si5  1  0.05926223  0.48576999  0.24200919  1
  Si  Si6  1  0.32582913  0.36613887  0.80208492  1
  Si  Si7  1  0.28244248  0.29604740  0.13451895  1
  Si  Si8  1  0.39864615  0.56708087  0.50349866  1
  Si  Si9  1  0.12485709  0.59045323  0.92703014  1
  Si  Si10  1  0.02459754  0.95336359  0.75982529  1
  Si  Si11  1  0.84882784  0.63983974  0.65323547  1
  Si  Si12  1  0.90808563  0.35068652  0.63070925  1
  Si  Si13  1  0.19863911  0.72543844  0.64307447  1
  Si  Si14  1  0.57536711  0.52849516  0.72189401  1
  Si  Si15  1  0.29121177  0.43271614  0.36526230  1
  Si  Si16  1  0.67662006  0.71724107  0.11969353  1
  Si  Si17  1  0.47570978  0.04483998  0.33113433  1
  Si  Si18  1  0.99493833  0.04057059  0.57265557  1
  Si  Si19  1  0.20237944  0.12624809  0.15985747  1
  Si  Si20  1  0.36101073  0.60004544  0.97772020  1
  Si  Si21  1  0.94332833  0.08888058  0.30729415  1
  Si  Si22  1  0.90079680  0.08759775  0.05098635  1
  Si  Si23  1  0.68835402  0.33642513  0.20723934  1
  Si  Si24  1  0.41211003  0.61725550  0.66276593  1
  Si  Si25  1  0.42093922  0.05696460  0.90394005  1
  Si  Si26  1  0.44761813  0.36400737  0.10254512  1
  Si  Si27  1  0.56538633  0.42720556  0.91534512  1
  Si  Si28  1  0.13376364  0.42740137  0.08001511  1
  Si  Si29  1  0.22531080  0.90543167  0.73037660  1
  Si  Si30  1  0.27222228  0.83849681  0.90506631  1
  Si  Si31  1  0.91466417  0.86677596  0.93592169  1
  Si  Si32  1  0.93459913  0.53724123  0.51659800  1
  Si  Si33  1  0.11593231  0.65223367  0.22701170  1
  Si  Si34  1  0.81781404  0.99870465  0.57072498  1
  Si  Si35  1  0.24430431  0.93341556  0.16331299  1
  Si  Si36  1  0.77600207  0.02449008  0.32823892  1
  Si  Si37  1  0.18446001  0.39510509  0.70518448  1
  Si  Si38  1  0.86345340  0.31364694  0.37154377  1
  Si  Si39  1  0.01915780  0.15948737  0.11889989  1
  Si  Si40  1  0.06316917  0.92234855  0.27232843  1
  Si  Si41  1  0.28676363  0.06821547  0.42926097  1
  Si  Si42  1  0.05220922  0.30918343  0.38527564  1
  Si  Si43  1  0.98190668  0.09527309  0.86024634  1
  Si  Si44  1  0.01712944  0.78608064  0.43694326  1
  Si  Si45  1  0.11048688  0.59775548  0.42927043  1
  Si  Si46  1  0.51728241  0.16779372  0.97629573  1
  Si  Si47  1  0.14058379  0.15268847  0.86115082  1
  Si  Si48  1  0.05528418  0.84988203  0.57037153  1
  Si  Si49  1  0.04555601  0.33499220  0.86865076  1
  Si  Si50  1  0.25573154  0.27053646  0.33577710  1
  Si  Si51  1  0.91364333  0.76041955  0.71977577  1
  Si  Si52  1  0.71009776  0.46902100  0.41808507  1
  Si  Si53  1  0.57045116  0.96309005  0.01641801  1
  Si  Si54  1  0.69447668  0.76428901  0.44933985  1
  Si  Si55  1  0.58972164  0.08472369  0.42470867  1
  Si  Si56  1  0.38309140  0.53258693  0.17498693  1
  Si  Si57  1  0.57652284  0.50689754  0.15068043  1
  Si  Si58  1  0.17442705  0.69420520  0.02422823  1
  Si  Si59  1  0.24803241  0.99371887  0.96771207  1
  Si  Si60  1  0.58764786  0.83266958  0.72518115  1
  Si  Si61  1  0.43647946  0.38749557  0.46946263  1
  Si  Si62  1  0.60576537  0.58589752  0.28238497  1
  Si  Si63  1  0.68465289  0.16098729  0.82710714  1
  Si  Si64  1  0.88485313  0.57629633  0.20992134  1
  Si  Si65  1  0.71875194  0.28153817  0.91876939  1
  Si  Si66  1  0.99336483  0.82490804  0.18688175  1
  Si  Si67  1  0.94852763  0.61731882  0.88311984  1
  Si  Si68  1  0.61351236  0.41021852  0.60686982  1
  Si  Si69  1  0.88080876  0.34994639  0.81811843  1
  Si  Si70  1  0.82486525  0.53091925  0.84374485  1
  Si  Si71  1  0.66393956  0.68544515  0.64175346  1
  Si  Si72  1  0.32785225  0.21764654  0.96664293  1
  Si  Si73  1  0.30945383  0.53800681  0.83956334  1
  Si  Si74  1  0.72423129  0.20105085  0.10740744  1
  Si  Si75  1  0.50888704  0.01107538  0.62092520  1
  Si  Si76  1  0.36120985  0.75224650  0.19349020  1
  Si  Si77  1  0.53921653  0.17015429  0.15322772  1
  Si  Si78  1  0.49944995  0.72644488  0.90258466  1
  Si  Si79  1  0.35947558  0.81194175  0.60342055  1
  Si  Si80  1  0.81881848  0.93756633  0.18122769  1
  Si  Si81  1  0.27636816  0.86059551  0.44718218  1
  Si  Si82  1  0.05564730  0.21738080  0.57886808  1
  Si  Si83  1  0.63755180  0.56374747  0.95034393  1
  Si  Si84  1  0.86237660  0.69225557  0.03310679  1
  Si  Si85  1  0.60496638  0.27220358  0.40165368  1
  Si  Si86  1  0.20249168  0.21756678  0.66327730  1
  Si  Si87  1  0.74332180  0.96853929  0.88828590  1
  Si  Si88  1  0.51529928  0.79184631  0.04653823  1
  Si  Si89  1  0.82548835  0.86536092  0.46605792  1
  Si  Si90  1  0.81143126  0.60947746  0.39033637  1
  Si  Si91  1  0.74825564  0.19032239  0.50486933  1
  Si  Si92  1  0.74508402  0.88871686  0.74851145  1
  Si  Si93  1  0.20661639  0.57078331  0.56993147  1
  Si  Si94  1  0.44146373  0.72190818  0.34885256  1
  Si  Si95  1  0.09928693  0.12085601  0.36071270  1
  Si  Si96  1  0.84618555  0.41103746  0.18676684  1
  Si  Si97  1  0.46482515  0.31041557  0.65681324  1
  Si  Si98  1  0.99915043  0.35144475  0.05322396  1
  Si  Si99  1  0.75665820  0.26693381  0.64624174  1
