# generated using pymatgen
data_Si
_symmetry_space_group_name_H-M   'P 1'
_cell_length_a   10.36663055
_cell_length_b   10.36663055
_cell_length_c   16.97027249
_cell_angle_alpha   90.00000000
_cell_angle_beta   90.00000000
_cell_angle_gamma   120.00000000
_symmetry_Int_Tables_number   1
_chemical_formula_structural   Si
_chemical_formula_sum   Si68
_cell_volume   1579.40929783
_cell_formula_units_Z   68
loop_
 _symmetry_equiv_pos_site_id
 _symmetry_equiv_pos_as_xyz
  1  'x, y, z'
loop_
 _atom_site_type_symbol
 _atom_site_label
 _atom_site_symmetry_multiplicity
 _atom_site_fract_x
 _atom_site_fract_y
 _atom_site_fract_z
 _atom_site_occupancy
  Si  Si0  1  0.04994024  0.71935621  0.43547734  1
  Si  Si1  1  0.28064379  0.33058403  0.43547734  1
  Si  Si2  1  0.66941597  0.95005976  0.43547734  1
  Si  Si3  1  0.28064379  0.95005976  0.43547734  1
  Si  Si4  1  0.66941597  0.71935621  0.43547734  1
  Si  Si5  1  0.04994024  0.33058403  0.43547734  1
  Si  Si6  1  0.95005976  0.28064379  0.56452266  1
  Si  Si7  1  0.71935621  0.66941597  0.56452266  1
  Si  Si8  1  0.33058403  0.04994024  0.56452266  1
  Si  Si9  1  0.71935621  0.04994024  0.56452266  1
  Si  Si10  1  0.33058403  0.28064379  0.56452266  1
  Si  Si11  1  0.95005976  0.66941597  0.56452266  1
  Si  Si12  1  0.95005976  0.28064379  0.93547734  1
  Si  Si13  1  0.71935621  0.66941597  0.93547734  1
  Si  Si14  1  0.33058403  0.04994024  0.93547734  1
  Si  Si15  1  0.71935621  0.04994024  0.93547734  1
  Si  Si16  1  0.33058403  0.28064379  0.93547734  1
  Si  Si17  1  0.95005976  0.66941597  0.93547734  1
  Si  Si18  1  0.04994024  0.71935621  0.06452266  1
  Si  Si19  1  0.28064379  0.33058403  0.06452266  1
  Si  Si20  1  0.66941597  0.95005976  0.06452266  1
  Si  Si21  1  0.28064379  0.95005976  0.06452266  1
  Si  Si22  1  0.66941597  0.71935621  0.06452266  1
  Si  Si23  1  0.04994024  0.33058403  0.06452266  1
  Si  Si24  1  0.08427646  0.54213823  0.13521693  1
  Si  Si25  1  0.45786177  0.54213823  0.13521693  1
  Si  Si26  1  0.45786177  0.91572354  0.13521693  1
  Si  Si27  1  0.91572354  0.45786177  0.86478307  1
  Si  Si28  1  0.54213823  0.45786177  0.86478307  1
  Si  Si29  1  0.54213823  0.08427646  0.86478307  1
  Si  Si30  1  0.91572354  0.45786177  0.63521693  1
  Si  Si31  1  0.54213823  0.45786177  0.63521693  1
  Si  Si32  1  0.54213823  0.08427646  0.63521693  1
  Si  Si33  1  0.08427646  0.54213823  0.36478307  1
  Si  Si34  1  0.45786177  0.54213823  0.36478307  1
  Si  Si35  1  0.45786177  0.91572354  0.36478307  1
  Si  Si36  1  0.12354963  0.24709926  0.63869081  1
  Si  Si37  1  0.75290074  0.87645037  0.63869081  1
  Si  Si38  1  0.12354963  0.87645037  0.63869081  1
  Si  Si39  1  0.87645037  0.75290074  0.36130919  1
  Si  Si40  1  0.24709926  0.12354963  0.36130919  1
  Si  Si41  1  0.87645037  0.12354963  0.36130919  1
  Si  Si42  1  0.87645037  0.75290074  0.13869081  1
  Si  Si43  1  0.24709926  0.12354963  0.13869081  1
  Si  Si44  1  0.87645037  0.12354963  0.13869081  1
  Si  Si45  1  0.12354963  0.24709926  0.86130919  1
  Si  Si46  1  0.75290074  0.87645037  0.86130919  1
  Si  Si47  1  0.12354963  0.87645037  0.86130919  1
  Si  Si48  1  0.33333333  0.66666667  0.18034960  1
  Si  Si49  1  0.66666667  0.33333333  0.81965040  1
  Si  Si50  1  0.66666667  0.33333333  0.68034960  1
  Si  Si51  1  0.33333333  0.66666667  0.31965040  1
  Si  Si52  1  0.00000000  0.00000000  0.18169822  1
  Si  Si53  1  0.00000000  0.00000000  0.81830178  1
  Si  Si54  1  0.00000000  0.00000000  0.68169822  1
  Si  Si55  1  0.00000000  0.00000000  0.31830178  1
  Si  Si56  1  0.06957243  0.53478622  0.75000000  1
  Si  Si57  1  0.46521378  0.53478621  0.75000000  1
  Si  Si58  1  0.46521379  0.93042757  0.75000000  1
  Si  Si59  1  0.93042757  0.46521378  0.25000000  1
  Si  Si60  1  0.53478622  0.46521379  0.25000000  1
  Si  Si61  1  0.53478621  0.06957243  0.25000000  1
  Si  Si62  1  0.20234778  0.40469556  0.75000000  1
  Si  Si63  1  0.59530444  0.79765222  0.75000000  1
  Si  Si64  1  0.20234778  0.79765222  0.75000000  1
  Si  Si65  1  0.79765222  0.59530444  0.25000000  1
  Si  Si66  1  0.40469556  0.20234778  0.25000000  1
  Si  Si67  1  0.79765222  0.20234778  0.25000000  1
