# generated using pymatgen
data_Si
_symmetry_space_group_name_H-M   'P 1'
_cell_length_a   3.97462300
_cell_length_b   5.45513699
_cell_length_c   9.14468534
_cell_angle_alpha   71.21834015
_cell_angle_beta   78.22842451
_cell_angle_gamma   68.76050432
_symmetry_Int_Tables_number   1
_chemical_formula_structural   Si
_chemical_formula_sum   Si8
_cell_volume   174.10769029
_cell_formula_units_Z   8
loop_
 _symmetry_equiv_pos_site_id
 _symmetry_equiv_pos_as_xyz
  1  'x, y, z'
loop_
 _atom_site_type_symbol
 _atom_site_label
 _atom_site_symmetry_multiplicity
 _atom_site_fract_x
 _atom_site_fract_y
 _atom_site_fract_z
 _atom_site_occupancy
  Si  Si0  1  0.09474000  0.00767900  0.08233300  1
  Si  Si1  1  0.00072400  0.66957600  0.05971100  1
  Si  Si2  1  0.56659500  0.51493100  0.24071800  1
  Si  Si3  1  0.12570700  0.38137700  0.62845900  1
  Si  Si4  1  0.84100800  0.32720800  0.80164500  1
  Si  Si5  1  0.28671500  0.79308800  0.68233000  1
  Si  Si6  1  0.56787400  0.84468700  0.51132200  1
  Si  Si7  1  0.50925300  0.43339800  0.00009200  1
