# generated using pymatgen
data_Si
_symmetry_space_group_name_H-M   'P 1'
_cell_length_a   3.82886495
_cell_length_b   10.70536072
_cell_length_c   12.67273019
_cell_angle_alpha   90.00000000
_cell_angle_beta   90.00000000
_cell_angle_gamma   90.00000000
_symmetry_Int_Tables_number   1
_chemical_formula_structural   Si
_chemical_formula_sum   Si24
_cell_volume   519.44735894
_cell_formula_units_Z   24
loop_
 _symmetry_equiv_pos_site_id
 _symmetry_equiv_pos_as_xyz
  1  'x, y, z'
loop_
 _atom_site_type_symbol
 _atom_site_label
 _atom_site_symmetry_multiplicity
 _atom_site_fract_x
 _atom_site_fract_y
 _atom_site_fract_z
 _atom_site_occupancy
  Si  Si0  1  0.00000000  0.24273382  0.94510656  1
  Si  Si1  1  0.50000000  0.25726618  0.05489344  1
  Si  Si2  1  0.00000000  0.24273382  0.55489344  1
  Si  Si3  1  0.50000000  0.25726618  0.44510656  1
  Si  Si4  1  0.50000000  0.07131494  0.15727091  1
  Si  Si5  1  0.00000000  0.42868505  0.84272909  1
  Si  Si6  1  0.50000000  0.07131494  0.34272909  1
  Si  Si7  1  0.00000000  0.42868505  0.65727091  1
  Si  Si8  1  0.00000000  0.02872941  0.90937010  1
  Si  Si9  1  0.50000000  0.47127059  0.09062990  1
  Si  Si10  1  0.00000000  0.02872941  0.59062990  1
  Si  Si11  1  0.50000000  0.47127059  0.40937010  1
  Si  Si12  1  0.50000000  0.74273382  0.94510656  1
  Si  Si13  1  0.00000000  0.75726618  0.05489344  1
  Si  Si14  1  0.50000000  0.74273382  0.55489344  1
  Si  Si15  1  0.00000000  0.75726618  0.44510656  1
  Si  Si16  1  0.00000000  0.57131495  0.15727091  1
  Si  Si17  1  0.50000000  0.92868505  0.84272909  1
  Si  Si18  1  0.00000000  0.57131495  0.34272909  1
  Si  Si19  1  0.50000000  0.92868505  0.65727091  1
  Si  Si20  1  0.50000000  0.52872941  0.90937010  1
  Si  Si21  1  0.00000000  0.97127059  0.09062990  1
  Si  Si22  1  0.50000000  0.52872941  0.59062990  1
  Si  Si23  1  0.00000000  0.97127059  0.40937010  1
